LTspice 24.1.9 for Windows
Circuit: C:\Users\fjmoy\OneDrive\Documentos\Fran\BuenosAires\2026\1C\Taller-de-Circuitos-Grupo-4\CheckPoint1\Simulaciones\Foldback_un_opamp.net
Start Time: Thu Apr  9 21:32:32 2026
C:\Users\fjmoy\OneDrive\Documentos\Fran\BuenosAires\2026\1C\Taller-de-Circuitos-Grupo-4\CheckPoint1\Simulaciones\Foldback_un_opamp.net(25): Sub-circuit name listed twice. This is most likely because the corresponding symbol contains the name in more than one attribute.
X§U1 0 Vref Vref TL431 TL431
                      ^^^^^^
solver = Normal
Maximum thread count: 4
tnom = 27
temp = 27
method = trap
Direct Newton iteration failed to find .op point.  (Use ".option noopiter" to skip.)
Starting Gmin stepping
Gmin = 10
Gmin = 1.07374
Gmin = 0.115292
Gmin = 0.0123794
Gmin = 0.00132923
Gmin = 0.000142725
Gmin = 1.5325e-05
Gmin = 1.6455e-06
Gmin = 1.76685e-07
Gmin = 1.89714e-08
Gmin = 2.03704e-09
Gmin = 2.18725e-10
Gmin = 2.34854e-11
Gmin = 2.52173e-12
Gmin = 2.70769e-13
Gmin = 0
Gmin stepping succeeded in finding the operating point.

Total elapsed time: 0.622 seconds.

Files loaded:
C:\Users\fjmoy\OneDrive\Documentos\Fran\BuenosAires\2026\1C\Taller-de-Circuitos-Grupo-4\CheckPoint1\Simulaciones\Foldback_un_opamp.net
C:\Users\fjmoy\AppData\Local\LTspice\lib\cmp\standard.bjt
C:\Users\fjmoy\AppData\Local\LTspice\lib\sub\opamp.sub
C:\Users\fjmoy\OneDrive\Documentos\Fran\BuenosAires\2026\1C\Taller-de-Circuitos-Grupo-4\CheckPoint1\Simulaciones\lm358.lib
C:\Users\fjmoy\OneDrive\Documentos\Fran\BuenosAires\2026\1C\Taller-de-Circuitos-Grupo-4\CheckPoint1\Simulaciones\TL431.mod

